<?xml version="1.0" encoding="UTF-8" standalone="yes"?>
<template encoding-version="1.2">
    <description>TMS 404 417 418 flow</description>
    <groupId>a2ff060f-0164-1000-d935-af81aeba415d</groupId>
    <name>TMS 404 417 418 flow</name>
    <snippet>
        <connections>
            <id>132056b1-b86d-306a-0000-000000000000</id>
            <parentGroupId>9cb9ebee-14c9-34e4-0000-000000000000</parentGroupId>
            <backPressureDataSizeThreshold>1 GB</backPressureDataSizeThreshold>
            <backPressureObjectThreshold>10000</backPressureObjectThreshold>
            <destination>
                <groupId>9cb9ebee-14c9-34e4-0000-000000000000</groupId>
                <id>55bae639-3571-3734-0000-000000000000</id>
                <type>PROCESSOR</type>
            </destination>
            <flowFileExpiration>0 sec</flowFileExpiration>
            <labelIndex>1</labelIndex>
            <name></name>
            <selectedRelationships>success</selectedRelationships>
            <source>
                <groupId>9cb9ebee-14c9-34e4-0000-000000000000</groupId>
                <id>06cda3c9-eca6-399b-0000-000000000000</id>
                <type>PROCESSOR</type>
            </source>
            <zIndex>0</zIndex>
        </connections>
        <connections>
            <id>155c4e13-343d-3e95-0000-000000000000</id>
            <parentGroupId>9cb9ebee-14c9-34e4-0000-000000000000</parentGroupId>
            <backPressureDataSizeThreshold>1 GB</backPressureDataSizeThreshold>
            <backPressureObjectThreshold>10000</backPressureObjectThreshold>
            <destination>
                <groupId>9cb9ebee-14c9-34e4-0000-000000000000</groupId>
                <id>bd1e07d4-882e-3233-0000-000000000000</id>
                <type>PROCESSOR</type>
            </destination>
            <flowFileExpiration>0 sec</flowFileExpiration>
            <labelIndex>1</labelIndex>
            <name></name>
            <selectedRelationships>success</selectedRelationships>
            <source>
                <groupId>9cb9ebee-14c9-34e4-0000-000000000000</groupId>
                <id>8feacb45-2550-3c0b-0000-000000000000</id>
                <type>PROCESSOR</type>
            </source>
            <zIndex>0</zIndex>
        </connections>
        <connections>
            <id>16ae5cef-250a-3291-0000-000000000000</id>
            <parentGroupId>9cb9ebee-14c9-34e4-0000-000000000000</parentGroupId>
            <backPressureDataSizeThreshold>1 GB</backPressureDataSizeThreshold>
            <backPressureObjectThreshold>10000</backPressureObjectThreshold>
            <destination>
                <groupId>9cb9ebee-14c9-34e4-0000-000000000000</groupId>
                <id>bd1e07d4-882e-3233-0000-000000000000</id>
                <type>PROCESSOR</type>
            </destination>
            <flowFileExpiration>0 sec</flowFileExpiration>
            <labelIndex>1</labelIndex>
            <name></name>
            <selectedRelationships>success</selectedRelationships>
            <source>
                <groupId>9cb9ebee-14c9-34e4-0000-000000000000</groupId>
                <id>fdffa35e-31bc-3955-0000-000000000000</id>
                <type>PROCESSOR</type>
            </source>
            <zIndex>0</zIndex>
        </connections>
        <connections>
            <id>47a5cbc7-fc8f-34a2-0000-000000000000</id>
            <parentGroupId>9cb9ebee-14c9-34e4-0000-000000000000</parentGroupId>
            <backPressureDataSizeThreshold>1 GB</backPressureDataSizeThreshold>
            <backPressureObjectThreshold>10000</backPressureObjectThreshold>
            <destination>
                <groupId>9cb9ebee-14c9-34e4-0000-000000000000</groupId>
                <id>9f14261c-ec06-37ae-0000-000000000000</id>
                <type>PROCESSOR</type>
            </destination>
            <flowFileExpiration>0 sec</flowFileExpiration>
            <labelIndex>1</labelIndex>
            <name></name>
            <selectedRelationships>nonzero status</selectedRelationships>
            <source>
                <groupId>9cb9ebee-14c9-34e4-0000-000000000000</groupId>
                <id>079dabd4-63c0-3e4f-0000-000000000000</id>
                <type>PROCESSOR</type>
            </source>
            <zIndex>0</zIndex>
        </connections>
        <connections>
            <id>4be91161-3a98-3b1e-0000-000000000000</id>
            <parentGroupId>9cb9ebee-14c9-34e4-0000-000000000000</parentGroupId>
            <backPressureDataSizeThreshold>1 GB</backPressureDataSizeThreshold>
            <backPressureObjectThreshold>10000</backPressureObjectThreshold>
            <destination>
                <groupId>9cb9ebee-14c9-34e4-0000-000000000000</groupId>
                <id>6eed8ded-ab9a-397b-0000-000000000000</id>
                <type>PROCESSOR</type>
            </destination>
            <flowFileExpiration>0 sec</flowFileExpiration>
            <labelIndex>1</labelIndex>
            <name></name>
            <selectedRelationships>success</selectedRelationships>
            <source>
                <groupId>9cb9ebee-14c9-34e4-0000-000000000000</groupId>
                <id>95064748-a3f4-3077-0000-000000000000</id>
                <type>PROCESSOR</type>
            </source>
            <zIndex>0</zIndex>
        </connections>
        <connections>
            <id>549bec78-b5a1-3921-0000-000000000000</id>
            <parentGroupId>9cb9ebee-14c9-34e4-0000-000000000000</parentGroupId>
            <backPressureDataSizeThreshold>1 GB</backPressureDataSizeThreshold>
            <backPressureObjectThreshold>10000</backPressureObjectThreshold>
            <destination>
                <groupId>9cb9ebee-14c9-34e4-0000-000000000000</groupId>
                <id>06cda3c9-eca6-399b-0000-000000000000</id>
                <type>PROCESSOR</type>
            </destination>
            <flowFileExpiration>0 sec</flowFileExpiration>
            <labelIndex>1</labelIndex>
            <name></name>
            <selectedRelationships>Original</selectedRelationships>
            <source>
                <groupId>9cb9ebee-14c9-34e4-0000-000000000000</groupId>
                <id>bd1e07d4-882e-3233-0000-000000000000</id>
                <type>PROCESSOR</type>
            </source>
            <zIndex>0</zIndex>
        </connections>
        <connections>
            <id>5667182d-18fe-3eaf-0000-000000000000</id>
            <parentGroupId>9cb9ebee-14c9-34e4-0000-000000000000</parentGroupId>
            <backPressureDataSizeThreshold>1 GB</backPressureDataSizeThreshold>
            <backPressureObjectThreshold>10000</backPressureObjectThreshold>
            <destination>
                <groupId>9cb9ebee-14c9-34e4-0000-000000000000</groupId>
                <id>0cdd6847-b637-3474-0000-000000000000</id>
                <type>PROCESSOR</type>
            </destination>
            <flowFileExpiration>0 sec</flowFileExpiration>
            <labelIndex>1</labelIndex>
            <name></name>
            <selectedRelationships>is_418</selectedRelationships>
            <source>
                <groupId>9cb9ebee-14c9-34e4-0000-000000000000</groupId>
                <id>6eed8ded-ab9a-397b-0000-000000000000</id>
                <type>PROCESSOR</type>
            </source>
            <zIndex>0</zIndex>
        </connections>
        <connections>
            <id>5e9798a5-f503-3765-0000-000000000000</id>
            <parentGroupId>9cb9ebee-14c9-34e4-0000-000000000000</parentGroupId>
            <backPressureDataSizeThreshold>1 GB</backPressureDataSizeThreshold>
            <backPressureObjectThreshold>10000</backPressureObjectThreshold>
            <destination>
                <groupId>9cb9ebee-14c9-34e4-0000-000000000000</groupId>
                <id>8feacb45-2550-3c0b-0000-000000000000</id>
                <type>PROCESSOR</type>
            </destination>
            <flowFileExpiration>0 sec</flowFileExpiration>
            <labelIndex>1</labelIndex>
            <name></name>
            <selectedRelationships>output stream</selectedRelationships>
            <source>
                <groupId>9cb9ebee-14c9-34e4-0000-000000000000</groupId>
                <id>079dabd4-63c0-3e4f-0000-000000000000</id>
                <type>PROCESSOR</type>
            </source>
            <zIndex>0</zIndex>
        </connections>
        <connections>
            <id>6d50fa32-5148-33d4-0000-000000000000</id>
            <parentGroupId>9cb9ebee-14c9-34e4-0000-000000000000</parentGroupId>
            <backPressureDataSizeThreshold>1 GB</backPressureDataSizeThreshold>
            <backPressureObjectThreshold>10000</backPressureObjectThreshold>
            <destination>
                <groupId>9cb9ebee-14c9-34e4-0000-000000000000</groupId>
                <id>4b401dda-a864-3af0-0000-000000000000</id>
                <type>PROCESSOR</type>
            </destination>
            <flowFileExpiration>0 sec</flowFileExpiration>
            <labelIndex>1</labelIndex>
            <name></name>
            <selectedRelationships>unmatched</selectedRelationships>
            <source>
                <groupId>9cb9ebee-14c9-34e4-0000-000000000000</groupId>
                <id>6eed8ded-ab9a-397b-0000-000000000000</id>
                <type>PROCESSOR</type>
            </source>
            <zIndex>0</zIndex>
        </connections>
        <connections>
            <id>94881ad3-a8d1-34c2-0000-000000000000</id>
            <parentGroupId>9cb9ebee-14c9-34e4-0000-000000000000</parentGroupId>
            <backPressureDataSizeThreshold>1 GB</backPressureDataSizeThreshold>
            <backPressureObjectThreshold>10000</backPressureObjectThreshold>
            <destination>
                <groupId>9cb9ebee-14c9-34e4-0000-000000000000</groupId>
                <id>079dabd4-63c0-3e4f-0000-000000000000</id>
                <type>PROCESSOR</type>
            </destination>
            <flowFileExpiration>0 sec</flowFileExpiration>
            <labelIndex>1</labelIndex>
            <name></name>
            <selectedRelationships>is_404</selectedRelationships>
            <selectedRelationships>is_417</selectedRelationships>
            <source>
                <groupId>9cb9ebee-14c9-34e4-0000-000000000000</groupId>
                <id>6eed8ded-ab9a-397b-0000-000000000000</id>
                <type>PROCESSOR</type>
            </source>
            <zIndex>0</zIndex>
        </connections>
        <connections>
            <id>a21ee854-8a33-323b-0000-000000000000</id>
            <parentGroupId>9cb9ebee-14c9-34e4-0000-000000000000</parentGroupId>
            <backPressureDataSizeThreshold>1 GB</backPressureDataSizeThreshold>
            <backPressureObjectThreshold>10000</backPressureObjectThreshold>
            <destination>
                <groupId>9cb9ebee-14c9-34e4-0000-000000000000</groupId>
                <id>8dddf57a-88ed-3085-0000-000000000000</id>
                <type>PROCESSOR</type>
            </destination>
            <flowFileExpiration>0 sec</flowFileExpiration>
            <labelIndex>1</labelIndex>
            <name></name>
            <selectedRelationships>success</selectedRelationships>
            <source>
                <groupId>9cb9ebee-14c9-34e4-0000-000000000000</groupId>
                <id>06cda3c9-eca6-399b-0000-000000000000</id>
                <type>PROCESSOR</type>
            </source>
            <zIndex>0</zIndex>
        </connections>
        <connections>
            <id>d20800c8-a3aa-3eb1-0000-000000000000</id>
            <parentGroupId>9cb9ebee-14c9-34e4-0000-000000000000</parentGroupId>
            <backPressureDataSizeThreshold>1 GB</backPressureDataSizeThreshold>
            <backPressureObjectThreshold>10000</backPressureObjectThreshold>
            <destination>
                <groupId>9cb9ebee-14c9-34e4-0000-000000000000</groupId>
                <id>fdffa35e-31bc-3955-0000-000000000000</id>
                <type>PROCESSOR</type>
            </destination>
            <flowFileExpiration>0 sec</flowFileExpiration>
            <labelIndex>1</labelIndex>
            <name></name>
            <selectedRelationships>output stream</selectedRelationships>
            <source>
                <groupId>9cb9ebee-14c9-34e4-0000-000000000000</groupId>
                <id>0cdd6847-b637-3474-0000-000000000000</id>
                <type>PROCESSOR</type>
            </source>
            <zIndex>0</zIndex>
        </connections>
        <processors>
            <id>06cda3c9-eca6-399b-0000-000000000000</id>
            <parentGroupId>9cb9ebee-14c9-34e4-0000-000000000000</parentGroupId>
            <position>
                <x>956.9294181177056</x>
                <y>1577.1363477400544</y>
            </position>
            <bundle>
                <artifact>nifi-update-attribute-nar</artifact>
                <group>org.apache.nifi</group>
                <version>1.7.0</version>
            </bundle>
            <config>
                <bulletinLevel>WARN</bulletinLevel>
                <comments></comments>
                <concurrentlySchedulableTaskCount>1</concurrentlySchedulableTaskCount>
                <descriptors>
                    <entry>
                        <key>Delete Attributes Expression</key>
                        <value>
                            <name>Delete Attributes Expression</name>
                        </value>
                    </entry>
                    <entry>
                        <key>Store State</key>
                        <value>
                            <name>Store State</name>
                        </value>
                    </entry>
                    <entry>
                        <key>Stateful Variables Initial Value</key>
                        <value>
                            <name>Stateful Variables Initial Value</name>
                        </value>
                    </entry>
                    <entry>
                        <key>filename</key>
                        <value>
                            <name>filename</name>
                        </value>
                    </entry>
                    <entry>
                        <key>message_id</key>
                        <value>
                            <name>message_id</name>
                        </value>
                    </entry>
                </descriptors>
                <executionNode>ALL</executionNode>
                <lossTolerant>false</lossTolerant>
                <penaltyDuration>30 sec</penaltyDuration>
                <properties>
                    <entry>
                        <key>Delete Attributes Expression</key>
                    </entry>
                    <entry>
                        <key>Store State</key>
                        <value>Do not store state</value>
                    </entry>
                    <entry>
                        <key>Stateful Variables Initial Value</key>
                    </entry>
                    <entry>
                        <key>filename</key>
                        <value>${nextid:jsonPath('$.id')}_${filename}.xml</value>
                    </entry>
                    <entry>
                        <key>message_id</key>
                        <value>${nextid:jsonPath('$.id')}</value>
                    </entry>
                </properties>
                <runDurationMillis>0</runDurationMillis>
                <schedulingPeriod>0 sec</schedulingPeriod>
                <schedulingStrategy>TIMER_DRIVEN</schedulingStrategy>
                <yieldDuration>1 sec</yieldDuration>
            </config>
            <executionNodeRestricted>false</executionNodeRestricted>
            <name>UpdateAttribute</name>
            <relationships>
                <autoTerminate>false</autoTerminate>
                <name>success</name>
            </relationships>
            <state>RUNNING</state>
            <style/>
            <type>org.apache.nifi.processors.attributes.UpdateAttribute</type>
        </processors>
        <processors>
            <id>079dabd4-63c0-3e4f-0000-000000000000</id>
            <parentGroupId>9cb9ebee-14c9-34e4-0000-000000000000</parentGroupId>
            <position>
                <x>566.5648586773509</x>
                <y>923.2244912448734</y>
            </position>
            <bundle>
                <artifact>nifi-standard-nar</artifact>
                <group>org.apache.nifi</group>
                <version>1.7.0</version>
            </bundle>
            <config>
                <bulletinLevel>WARN</bulletinLevel>
                <comments></comments>
                <concurrentlySchedulableTaskCount>1</concurrentlySchedulableTaskCount>
                <descriptors>
                    <entry>
                        <key>Command Arguments</key>
                        <value>
                            <name>Command Arguments</name>
                        </value>
                    </entry>
                    <entry>
                        <key>Command Path</key>
                        <value>
                            <name>Command Path</name>
                        </value>
                    </entry>
                    <entry>
                        <key>Ignore STDIN</key>
                        <value>
                            <name>Ignore STDIN</name>
                        </value>
                    </entry>
                    <entry>
                        <key>Working Directory</key>
                        <value>
                            <name>Working Directory</name>
                        </value>
                    </entry>
                    <entry>
                        <key>Argument Delimiter</key>
                        <value>
                            <name>Argument Delimiter</name>
                        </value>
                    </entry>
                    <entry>
                        <key>Output Destination Attribute</key>
                        <value>
                            <name>Output Destination Attribute</name>
                        </value>
                    </entry>
                    <entry>
                        <key>Max Attribute Length</key>
                        <value>
                            <name>Max Attribute Length</name>
                        </value>
                    </entry>
                </descriptors>
                <executionNode>ALL</executionNode>
                <lossTolerant>false</lossTolerant>
                <penaltyDuration>30 sec</penaltyDuration>
                <properties>
                    <entry>
                        <key>Command Arguments</key>
                        <value>-jar;trans417Wrapper.jar</value>
                    </entry>
                    <entry>
                        <key>Command Path</key>
                        <value>/usr/bin/java</value>
                    </entry>
                    <entry>
                        <key>Ignore STDIN</key>
                        <value>false</value>
                    </entry>
                    <entry>
                        <key>Working Directory</key>
                        <value>/Users/antonioschaffert/workspace/nifi</value>
                    </entry>
                    <entry>
                        <key>Argument Delimiter</key>
                        <value>;</value>
                    </entry>
                    <entry>
                        <key>Output Destination Attribute</key>
                    </entry>
                    <entry>
                        <key>Max Attribute Length</key>
                        <value>256</value>
                    </entry>
                </properties>
                <runDurationMillis>0</runDurationMillis>
                <schedulingPeriod>0 sec</schedulingPeriod>
                <schedulingStrategy>TIMER_DRIVEN</schedulingStrategy>
                <yieldDuration>1 sec</yieldDuration>
            </config>
            <executionNodeRestricted>false</executionNodeRestricted>
            <name>404 &amp; 417 Transformation</name>
            <relationships>
                <autoTerminate>false</autoTerminate>
                <name>nonzero status</name>
            </relationships>
            <relationships>
                <autoTerminate>true</autoTerminate>
                <name>original</name>
            </relationships>
            <relationships>
                <autoTerminate>false</autoTerminate>
                <name>output stream</name>
            </relationships>
            <state>RUNNING</state>
            <style/>
            <type>org.apache.nifi.processors.standard.ExecuteStreamCommand</type>
        </processors>
        <processors>
            <id>0cdd6847-b637-3474-0000-000000000000</id>
            <parentGroupId>9cb9ebee-14c9-34e4-0000-000000000000</parentGroupId>
            <position>
                <x>1215.9819729351634</x>
                <y>909.4144021335453</y>
            </position>
            <bundle>
                <artifact>nifi-standard-nar</artifact>
                <group>org.apache.nifi</group>
                <version>1.7.0</version>
            </bundle>
            <config>
                <bulletinLevel>WARN</bulletinLevel>
                <comments></comments>
                <concurrentlySchedulableTaskCount>1</concurrentlySchedulableTaskCount>
                <descriptors>
                    <entry>
                        <key>Command Arguments</key>
                        <value>
                            <name>Command Arguments</name>
                        </value>
                    </entry>
                    <entry>
                        <key>Command Path</key>
                        <value>
                            <name>Command Path</name>
                        </value>
                    </entry>
                    <entry>
                        <key>Ignore STDIN</key>
                        <value>
                            <name>Ignore STDIN</name>
                        </value>
                    </entry>
                    <entry>
                        <key>Working Directory</key>
                        <value>
                            <name>Working Directory</name>
                        </value>
                    </entry>
                    <entry>
                        <key>Argument Delimiter</key>
                        <value>
                            <name>Argument Delimiter</name>
                        </value>
                    </entry>
                    <entry>
                        <key>Output Destination Attribute</key>
                        <value>
                            <name>Output Destination Attribute</name>
                        </value>
                    </entry>
                    <entry>
                        <key>Max Attribute Length</key>
                        <value>
                            <name>Max Attribute Length</name>
                        </value>
                    </entry>
                </descriptors>
                <executionNode>ALL</executionNode>
                <lossTolerant>false</lossTolerant>
                <penaltyDuration>30 sec</penaltyDuration>
                <properties>
                    <entry>
                        <key>Command Arguments</key>
                        <value>-jar;trans418Wrapper.jar</value>
                    </entry>
                    <entry>
                        <key>Command Path</key>
                        <value>/usr/bin/java</value>
                    </entry>
                    <entry>
                        <key>Ignore STDIN</key>
                        <value>false</value>
                    </entry>
                    <entry>
                        <key>Working Directory</key>
                        <value>/Users/antonioschaffert/workspace/nifi</value>
                    </entry>
                    <entry>
                        <key>Argument Delimiter</key>
                        <value>;</value>
                    </entry>
                    <entry>
                        <key>Output Destination Attribute</key>
                    </entry>
                    <entry>
                        <key>Max Attribute Length</key>
                        <value>256</value>
                    </entry>
                </properties>
                <runDurationMillis>0</runDurationMillis>
                <schedulingPeriod>0 sec</schedulingPeriod>
                <schedulingStrategy>TIMER_DRIVEN</schedulingStrategy>
                <yieldDuration>1 sec</yieldDuration>
            </config>
            <executionNodeRestricted>false</executionNodeRestricted>
            <name>418 Transformation</name>
            <relationships>
                <autoTerminate>true</autoTerminate>
                <name>nonzero status</name>
            </relationships>
            <relationships>
                <autoTerminate>true</autoTerminate>
                <name>original</name>
            </relationships>
            <relationships>
                <autoTerminate>false</autoTerminate>
                <name>output stream</name>
            </relationships>
            <state>STOPPED</state>
            <style/>
            <type>org.apache.nifi.processors.standard.ExecuteStreamCommand</type>
        </processors>
        <processors>
            <id>4b401dda-a864-3af0-0000-000000000000</id>
            <parentGroupId>9cb9ebee-14c9-34e4-0000-000000000000</parentGroupId>
            <position>
                <x>407.0697021484375</x>
                <y>505.75740580946683</y>
            </position>
            <bundle>
                <artifact>nifi-standard-nar</artifact>
                <group>org.apache.nifi</group>
                <version>1.7.0</version>
            </bundle>
            <config>
                <bulletinLevel>WARN</bulletinLevel>
                <comments></comments>
                <concurrentlySchedulableTaskCount>1</concurrentlySchedulableTaskCount>
                <descriptors>
                    <entry>
                        <key>Directory</key>
                        <value>
                            <name>Directory</name>
                        </value>
                    </entry>
                    <entry>
                        <key>Conflict Resolution Strategy</key>
                        <value>
                            <name>Conflict Resolution Strategy</name>
                        </value>
                    </entry>
                    <entry>
                        <key>Create Missing Directories</key>
                        <value>
                            <name>Create Missing Directories</name>
                        </value>
                    </entry>
                    <entry>
                        <key>Maximum File Count</key>
                        <value>
                            <name>Maximum File Count</name>
                        </value>
                    </entry>
                    <entry>
                        <key>Last Modified Time</key>
                        <value>
                            <name>Last Modified Time</name>
                        </value>
                    </entry>
                    <entry>
                        <key>Permissions</key>
                        <value>
                            <name>Permissions</name>
                        </value>
                    </entry>
                    <entry>
                        <key>Owner</key>
                        <value>
                            <name>Owner</name>
                        </value>
                    </entry>
                    <entry>
                        <key>Group</key>
                        <value>
                            <name>Group</name>
                        </value>
                    </entry>
                </descriptors>
                <executionNode>ALL</executionNode>
                <lossTolerant>false</lossTolerant>
                <penaltyDuration>30 sec</penaltyDuration>
                <properties>
                    <entry>
                        <key>Directory</key>
                        <value>/Users/antonioschaffert/workspace/nifi/out/edi/unmatched</value>
                    </entry>
                    <entry>
                        <key>Conflict Resolution Strategy</key>
                        <value>replace</value>
                    </entry>
                    <entry>
                        <key>Create Missing Directories</key>
                        <value>true</value>
                    </entry>
                    <entry>
                        <key>Maximum File Count</key>
                    </entry>
                    <entry>
                        <key>Last Modified Time</key>
                    </entry>
                    <entry>
                        <key>Permissions</key>
                    </entry>
                    <entry>
                        <key>Owner</key>
                    </entry>
                    <entry>
                        <key>Group</key>
                    </entry>
                </properties>
                <runDurationMillis>0</runDurationMillis>
                <schedulingPeriod>0 sec</schedulingPeriod>
                <schedulingStrategy>TIMER_DRIVEN</schedulingStrategy>
                <yieldDuration>1 sec</yieldDuration>
            </config>
            <executionNodeRestricted>false</executionNodeRestricted>
            <name>PutFile</name>
            <relationships>
                <autoTerminate>true</autoTerminate>
                <name>failure</name>
            </relationships>
            <relationships>
                <autoTerminate>true</autoTerminate>
                <name>success</name>
            </relationships>
            <state>STOPPED</state>
            <style/>
            <type>org.apache.nifi.processors.standard.PutFile</type>
        </processors>